REMARK  Name = Z1001209862-6
REMARK  8 active torsions:
REMARK  status: ('A' for Active; 'I' for Inactive)
REMARK    1  A    between atoms: C_1  and  C_2
REMARK    2  A    between atoms: C_2  and  C_3
REMARK    3  A    between atoms: C_2  and  C_4
REMARK    4  A    between atoms: C_4  and  N_5
REMARK    5  A    between atoms: C_4  and  C_13
REMARK    6  A    between atoms: C_7  and  C_8
REMARK    7  A    between atoms: C_10  and  C_11
REMARK    8  A    between atoms: N_18  and  C_21
REMARK                            x       y       z     vdW  Elec       q    Type
REMARK                         _______ _______ _______ _____ _____    ______ ____
ROOT
ATOM      1  C   UNL     1       1.631   0.962  -1.132  0.00  0.00    +0.233 C 
ATOM      2  O   UNL     1       1.731   0.442  -2.248  0.00  0.00    -0.274 OA
ATOM      3  N   UNL     1       1.954   2.268  -0.909  0.00  0.00    -0.297 N 
ATOM      4  C   UNL     1       1.836   2.973   0.369  0.00  0.00    +0.126 C 
ATOM      5  C   UNL     1       3.256   3.247   0.906  0.00  0.00    +0.125 C 
ATOM      6  N   UNL     1       4.200   3.880  -0.044  0.00  0.00    -0.311 N 
ATOM      7  C   UNL     1       4.086   3.345  -1.418  0.00  0.00    +0.125 C 
ATOM      8  C   UNL     1       2.657   3.046  -1.931  0.00  0.00    +0.126 C 
ENDROOT
BRANCH   6   9
ATOM      9  C   UNL     1       5.386   4.471   0.413  0.00  0.00    +0.144 A 
ATOM     10  C   UNL     1       6.474   4.753  -0.432  0.00  0.00    +0.047 A 
ATOM     11  C   UNL     1       7.594   5.393   0.097  0.00  0.00    +0.025 A 
ATOM     12  C   UNL     1       7.575   5.732   1.446  0.00  0.00    +0.135 A 
ATOM     13  N   UNL     1       6.511   5.463   2.243  0.00  0.00    -0.156 NA
ATOM     14  N   UNL     1       5.433   4.850   1.727  0.00  0.00    -0.134 NA
ENDBRANCH   6   9
BRANCH   1  15
ATOM     15  C   UNL     1       1.156   0.045   0.051  0.00  0.00    +0.146 C 
BRANCH  15  16
ATOM     16  N   UNL     1       1.963  -1.221   0.043  0.00  0.00    -0.286 NA
ATOM     17  C   UNL     1       3.408  -1.031   0.233  0.00  0.00    +0.116 C 
ATOM     18  C   UNL     1       4.151  -2.357  -0.012  0.00  0.00    +0.130 C 
ATOM     19  C   UNL     1       3.946  -2.971  -1.414  0.00  0.00    +0.039 C 
ATOM     20  O   UNL     1       3.807  -3.251   1.040  0.00  0.00    -0.371 OA
ATOM     21  C   UNL     1       2.407  -3.473   1.240  0.00  0.00    +0.130 C 
ATOM     22  C   UNL     1       2.116  -4.233   2.540  0.00  0.00    +0.039 C 
ATOM     23  C   UNL     1       1.473  -2.248   0.982  0.00  0.00    +0.116 C 
ENDBRANCH  15  16
BRANCH  15  25
ATOM     24  C   UNL     1      -0.899  -0.895  -1.317  0.00  0.00    +0.009 C 
ATOM     25  C   UNL     1      -0.405  -0.139  -0.062  0.00  0.00    +0.009 C 
ATOM     26  C   UNL     1      -1.208   1.165   0.124  0.00  0.00    +0.009 C 
ENDBRANCH  15  25
ENDBRANCH   1  15
TORSDOF 4
