REMARK  Name = Z1001209862-3
REMARK  8 active torsions:
REMARK  status: ('A' for Active; 'I' for Inactive)
REMARK    1  A    between atoms: C_1  and  C_2
REMARK    2  A    between atoms: C_2  and  C_3
REMARK    3  A    between atoms: C_2  and  C_4
REMARK    4  A    between atoms: C_4  and  N_5
REMARK    5  A    between atoms: C_4  and  C_13
REMARK    6  A    between atoms: C_7  and  C_8
REMARK    7  A    between atoms: C_10  and  C_11
REMARK    8  A    between atoms: N_18  and  C_21
REMARK                            x       y       z     vdW  Elec       q    Type
REMARK                         _______ _______ _______ _____ _____    ______ ____
ROOT
ATOM      1  C   UNL     1       1.633   0.616  -1.425  0.00  0.00    +0.233 C 
ATOM      2  O   UNL     1       1.765   1.844  -1.447  0.00  0.00    -0.274 OA
ATOM      3  N   UNL     1       1.958  -0.168  -2.493  0.00  0.00    -0.297 N 
ATOM      4  C   UNL     1       1.843  -1.626  -2.547  0.00  0.00    +0.126 C 
ATOM      5  C   UNL     1       3.262  -2.233  -2.474  0.00  0.00    +0.125 C 
ATOM      6  N   UNL     1       4.261  -1.662  -3.403  0.00  0.00    -0.311 N 
ATOM      7  C   UNL     1       4.143  -0.194  -3.564  0.00  0.00    +0.125 C 
ATOM      8  C   UNL     1       2.712   0.387  -3.619  0.00  0.00    +0.126 C 
ENDROOT
BRANCH   6   9
ATOM      9  C   UNL     1       5.481  -2.310  -3.641  0.00  0.00    +0.144 A 
ATOM     10  C   UNL     1       5.764  -3.603  -3.166  0.00  0.00    +0.047 A 
ATOM     11  C   UNL     1       6.984  -4.192  -3.490  0.00  0.00    +0.025 A 
ATOM     12  C   UNL     1       7.867  -3.469  -4.287  0.00  0.00    +0.135 A 
ATOM     13  N   UNL     1       7.571  -2.228  -4.748  0.00  0.00    -0.156 NA
ATOM     14  N   UNL     1       6.392  -1.666  -4.433  0.00  0.00    -0.134 NA
ENDBRANCH   6   9
BRANCH   1  15
ATOM     15  C   UNL     1       1.115  -0.029  -0.091  0.00  0.00    +0.146 C 
BRANCH  15  16
ATOM     16  N   UNL     1       1.959   0.472   1.045  0.00  0.00    -0.286 NA
ATOM     17  C   UNL     1       1.439   0.131   2.383  0.00  0.00    +0.116 C 
ATOM     18  C   UNL     1       2.391   0.394   3.592  0.00  0.00    +0.130 C 
ATOM     19  C   UNL     1       2.032  -0.377   4.868  0.00  0.00    +0.039 C 
ATOM     20  O   UNL     1       3.794   0.353   3.309  0.00  0.00    -0.371 OA
ATOM     21  C   UNL     1       4.188   0.847   2.035  0.00  0.00    +0.130 C 
ATOM     22  C   UNL     1       4.122   2.386   1.943  0.00  0.00    +0.039 C 
ATOM     23  C   UNL     1       3.378   0.097   0.962  0.00  0.00    +0.116 C 
ENDBRANCH  15  16
BRANCH  15  25
ATOM     24  C   UNL     1      -1.264  -0.437  -1.088  0.00  0.00    +0.009 C 
ATOM     25  C   UNL     1      -0.433   0.241   0.022  0.00  0.00    +0.009 C 
ATOM     26  C   UNL     1      -0.848   1.723   0.167  0.00  0.00    +0.009 C 
ENDBRANCH  15  25
ENDBRANCH   1  15
TORSDOF 4
