REMARK  Name = Z1001209862-4
REMARK  8 active torsions:
REMARK  status: ('A' for Active; 'I' for Inactive)
REMARK    1  A    between atoms: C_1  and  C_2
REMARK    2  A    between atoms: C_2  and  C_3
REMARK    3  A    between atoms: C_2  and  C_4
REMARK    4  A    between atoms: C_4  and  N_5
REMARK    5  A    between atoms: C_4  and  C_13
REMARK    6  A    between atoms: C_7  and  C_8
REMARK    7  A    between atoms: C_10  and  C_11
REMARK    8  A    between atoms: N_18  and  C_21
REMARK                            x       y       z     vdW  Elec       q    Type
REMARK                         _______ _______ _______ _____ _____    ______ ____
ROOT
ATOM      1  C   UNL     1       1.476   1.006  -1.046  0.00  0.00    +0.233 C 
ATOM      2  O   UNL     1       1.469   0.541  -2.191  0.00  0.00    -0.274 OA
ATOM      3  N   UNL     1       1.839   2.295  -0.789  0.00  0.00    -0.297 N 
ATOM      4  C   UNL     1       1.861   2.935   0.527  0.00  0.00    +0.126 C 
ATOM      5  C   UNL     1       3.333   3.143   0.941  0.00  0.00    +0.125 C 
ATOM      6  N   UNL     1       4.208   3.792  -0.064  0.00  0.00    -0.311 N 
ATOM      7  C   UNL     1       3.942   3.343  -1.448  0.00  0.00    +0.125 C 
ATOM      8  C   UNL     1       2.461   3.113  -1.833  0.00  0.00    +0.126 C 
ENDROOT
BRANCH   6   9
ATOM      9  C   UNL     1       5.460   4.304   0.305  0.00  0.00    +0.144 A 
ATOM     10  C   UNL     1       6.471   4.594  -0.629  0.00  0.00    +0.047 A 
ATOM     11  C   UNL     1       7.669   5.145  -0.180  0.00  0.00    +0.025 A 
ATOM     12  C   UNL     1       7.802   5.396   1.182  0.00  0.00    +0.135 A 
ATOM     13  N   UNL     1       6.810   5.124   2.066  0.00  0.00    -0.156 NA
ATOM     14  N   UNL     1       5.656   4.594   1.627  0.00  0.00    -0.134 NA
ENDBRANCH   6   9
BRANCH   1  15
ATOM     15  C   UNL     1       1.089   0.034   0.124  0.00  0.00    +0.146 C 
BRANCH  15  16
ATOM     16  N   UNL     1       1.938  -1.203   0.030  0.00  0.00    -0.286 NA
ATOM     17  C   UNL     1       3.392  -0.948   0.151  0.00  0.00    +0.116 C 
ATOM     18  C   UNL     1       4.316  -2.189   0.354  0.00  0.00    +0.130 C 
ATOM     19  C   UNL     1       5.691  -1.866   0.951  0.00  0.00    +0.039 C 
ATOM     20  O   UNL     1       3.706  -3.323   0.978  0.00  0.00    -0.371 OA
ATOM     21  C   UNL     1       2.347  -3.559   0.634  0.00  0.00    +0.130 C 
ATOM     22  C   UNL     1       2.174  -4.105  -0.800  0.00  0.00    +0.039 C 
ATOM     23  C   UNL     1       1.549  -2.279   0.947  0.00  0.00    +0.116 C 
ENDBRANCH  15  16
BRANCH  15  25
ATOM     24  C   UNL     1      -1.006  -0.995  -1.106  0.00  0.00    +0.009 C 
ATOM     25  C   UNL     1      -0.472  -0.180   0.093  0.00  0.00    +0.009 C 
ATOM     26  C   UNL     1      -1.293   1.115   0.269  0.00  0.00    +0.009 C 
ENDBRANCH  15  25
ENDBRANCH   1  15
TORSDOF 4
