REMARK  Name = Z1001209862-1
REMARK  8 active torsions:
REMARK  status: ('A' for Active; 'I' for Inactive)
REMARK    1  A    between atoms: C_1  and  C_2
REMARK    2  A    between atoms: C_2  and  C_3
REMARK    3  A    between atoms: C_2  and  C_4
REMARK    4  A    between atoms: C_4  and  N_5
REMARK    5  A    between atoms: C_4  and  C_13
REMARK    6  A    between atoms: C_7  and  C_8
REMARK    7  A    between atoms: C_10  and  C_11
REMARK    8  A    between atoms: N_18  and  C_21
REMARK                            x       y       z     vdW  Elec       q    Type
REMARK                         _______ _______ _______ _____ _____    ______ ____
ROOT
ATOM      1  C   UNL     1       1.837   0.649  -1.338  0.00  0.00    +0.233 C 
ATOM      2  O   UNL     1       1.979   1.876  -1.338  0.00  0.00    -0.274 OA
ATOM      3  N   UNL     1       2.188  -0.122  -2.407  0.00  0.00    -0.297 N 
ATOM      4  C   UNL     1       2.900   0.462  -3.548  0.00  0.00    +0.126 C 
ATOM      5  C   UNL     1       4.303  -0.181  -3.626  0.00  0.00    +0.125 C 
ATOM      6  N   UNL     1       4.358  -1.659  -3.569  0.00  0.00    -0.311 N 
ATOM      7  C   UNL     1       3.420  -2.231  -2.581  0.00  0.00    +0.125 C 
ATOM      8  C   UNL     1       2.024  -1.575  -2.511  0.00  0.00    +0.126 C 
ENDROOT
BRANCH   6   9
ATOM      9  C   UNL     1       5.506  -2.353  -3.976  0.00  0.00    +0.144 A 
ATOM     10  C   UNL     1       5.762  -3.687  -3.610  0.00  0.00    +0.047 A 
ATOM     11  C   UNL     1       6.899  -4.319  -4.109  0.00  0.00    +0.025 A 
ATOM     12  C   UNL     1       7.726  -3.596  -4.961  0.00  0.00    +0.135 A 
ATOM     13  N   UNL     1       7.458  -2.313  -5.311  0.00  0.00    -0.156 NA
ATOM     14  N   UNL     1       6.359  -1.710  -4.829  0.00  0.00    -0.134 NA
ENDBRANCH   6   9
BRANCH   1  15
ATOM     15  C   UNL     1       1.257  -0.006  -0.033  0.00  0.00    +0.146 C 
BRANCH  15  16
ATOM     16  N   UNL     1       1.990   0.539   1.163  0.00  0.00    -0.286 NA
ATOM     17  C   UNL     1       1.367   0.179   2.452  0.00  0.00    +0.116 C 
ATOM     18  C   UNL     1       2.190   0.503   3.733  0.00  0.00    +0.130 C 
ATOM     19  C   UNL     1       1.736  -0.256   4.987  0.00  0.00    +0.039 C 
ATOM     20  O   UNL     1       3.609   0.483   3.573  0.00  0.00    -0.371 OA
ATOM     21  C   UNL     1       4.074   1.019   2.344  0.00  0.00    +0.130 C 
ATOM     22  C   UNL     1       5.603   0.889   2.336  0.00  0.00    +0.039 C 
ATOM     23  C   UNL     1       3.429   0.229   1.191  0.00  0.00    +0.116 C 
ENDBRANCH  15  16
BRANCH  15  25
ATOM     24  C   UNL     1      -1.036  -0.526  -1.186  0.00  0.00    +0.009 C 
ATOM     25  C   UNL     1      -0.307   0.203  -0.038  0.00  0.00    +0.009 C 
ATOM     26  C   UNL     1      -0.785   1.670   0.047  0.00  0.00    +0.009 C 
ENDBRANCH  15  25
ENDBRANCH   1  15
TORSDOF 4
