REMARK  Name = Z1000264452-1
REMARK  5 active torsions:
REMARK  status: ('A' for Active; 'I' for Inactive)
REMARK    1  A    between atoms: C_1  and  C_2
REMARK    2  A    between atoms: C_6  and  C_8
REMARK    3  A    between atoms: N_10  and  C_11
REMARK    4  A    between atoms: C_15  and  C_17
REMARK    5  A    between atoms: N_19  and  C_20
REMARK                            x       y       z     vdW  Elec       q    Type
REMARK                         _______ _______ _______ _____ _____    ______ ____
ROOT
ATOM      1  C   UNL     1       1.373   0.159  -0.071  0.00  0.00    +0.034 A 
ATOM      2  C   UNL     1       2.047  -0.963  -0.558  0.00  0.00    +0.023 A 
ATOM      3  C   UNL     1       3.439  -0.996  -0.585  0.00  0.00    +0.003 A 
ATOM      4  C   UNL     1       4.172   0.094  -0.120  0.00  0.00    +0.013 A 
ATOM      5  C   UNL     1       3.526   1.233   0.381  0.00  0.00    +0.039 A 
ATOM      6  C   UNL     1       2.119   1.250   0.409  0.00  0.00    +0.036 A 
ENDROOT
BRANCH   1   9
ATOM      7  C   UNL     1      -0.955   1.067   0.082  0.00  0.00    +0.267 C 
ATOM      8  O   UNL     1      -0.681   2.254   0.266  0.00  0.00    -0.268 OA
ATOM      9  N   UNL     1      -0.033   0.087  -0.085  0.00  0.00    -0.280 N 
ATOM     10  H   UNL     1      -0.400  -0.833  -0.279  0.00  0.00    +0.155 HD
BRANCH   7  16
ATOM     11  C   UNL     1      -4.307  -2.488  -0.625  0.00  0.00    +0.088 C 
ATOM     12  C   UNL     1      -3.993  -1.036  -0.318  0.00  0.00    +0.127 A 
ATOM     13  N   UNL     1      -5.055  -0.212  -0.129  0.00  0.00    -0.241 NA
ATOM     14  C   UNL     1      -4.756   1.085   0.141  0.00  0.00    +0.115 A 
ATOM     15  C   UNL     1      -3.442   1.555   0.223  0.00  0.00    +0.053 A 
ATOM     16  C   UNL     1      -2.405   0.629   0.014  0.00  0.00    +0.129 A 
ATOM     17  N   UNL     1      -2.682  -0.683  -0.260  0.00  0.00    -0.228 NA
ENDBRANCH   7  16
ENDBRANCH   1   9
BRANCH   5  18
ATOM     18  C   UNL     1       4.347   2.401   0.884  0.00  0.00    +0.249 C 
ATOM     19  O   UNL     1       5.521   2.230   1.222  0.00  0.00    -0.270 OA
ATOM     20  N   UNL     1       3.717   3.599   0.901  0.00  0.00    -0.266 N 
ATOM     21  H   UNL     1       2.746   3.601   0.626  0.00  0.00    +0.157 HD
BRANCH  20  22
ATOM     22  C   UNL     1       4.222   4.856   1.281  0.00  0.00    +0.125 A 
ATOM     23  C   UNL     1       3.298   5.907   1.330  0.00  0.00    +0.044 A 
ATOM     24  C   UNL     1       3.741   7.184   1.684  0.00  0.00    +0.005 A 
ATOM     25  C   UNL     1       5.090   7.388   1.978  0.00  0.00    +0.020 A 
ATOM     26  C   UNL     1       5.957   6.297   1.908  0.00  0.00    +0.113 A 
ATOM     27  N   UNL     1       5.543   5.051   1.566  0.00  0.00    -0.240 NA
ENDBRANCH  20  22
ENDBRANCH   5  18
TORSDOF 4
