REMARK  Name = Z1001209862-5
REMARK  8 active torsions:
REMARK  status: ('A' for Active; 'I' for Inactive)
REMARK    1  A    between atoms: C_1  and  C_2
REMARK    2  A    between atoms: C_2  and  C_3
REMARK    3  A    between atoms: C_2  and  C_4
REMARK    4  A    between atoms: C_4  and  N_5
REMARK    5  A    between atoms: C_4  and  C_13
REMARK    6  A    between atoms: C_7  and  C_8
REMARK    7  A    between atoms: C_10  and  C_11
REMARK    8  A    between atoms: N_18  and  C_21
REMARK                            x       y       z     vdW  Elec       q    Type
REMARK                         _______ _______ _______ _____ _____    ______ ____
ROOT
ATOM      1  C   UNL     1       1.540   0.558  -1.405  0.00  0.00    +0.233 C 
ATOM      2  O   UNL     1       1.564   1.791  -1.475  0.00  0.00    -0.274 OA
ATOM      3  N   UNL     1       1.917  -0.235  -2.448  0.00  0.00    -0.297 N 
ATOM      4  C   UNL     1       1.888  -1.699  -2.464  0.00  0.00    +0.126 C 
ATOM      5  C   UNL     1       3.341  -2.221  -2.425  0.00  0.00    +0.125 C 
ATOM      6  N   UNL     1       4.277  -1.616  -3.397  0.00  0.00    -0.311 N 
ATOM      7  C   UNL     1       4.070  -0.161  -3.581  0.00  0.00    +0.125 C 
ATOM      8  C   UNL     1       2.606   0.337  -3.607  0.00  0.00    +0.126 C 
ENDROOT
BRANCH   6   9
ATOM      9  C   UNL     1       5.524  -2.199  -3.660  0.00  0.00    +0.144 A 
ATOM     10  C   UNL     1       5.897  -3.461  -3.164  0.00  0.00    +0.047 A 
ATOM     11  C   UNL     1       7.139  -3.987  -3.514  0.00  0.00    +0.025 A 
ATOM     12  C   UNL     1       7.952  -3.234  -4.356  0.00  0.00    +0.135 A 
ATOM     13  N   UNL     1       7.570  -2.026  -4.837  0.00  0.00    -0.156 NA
ATOM     14  N   UNL     1       6.370  -1.525  -4.498  0.00  0.00    -0.134 NA
ENDBRANCH   6   9
BRANCH   1  15
ATOM     15  C   UNL     1       1.098  -0.075  -0.038  0.00  0.00    +0.146 C 
BRANCH  15  16
ATOM     16  N   UNL     1       1.926   0.523   1.064  0.00  0.00    -0.286 NA
ATOM     17  C   UNL     1       1.489   0.163   2.417  0.00  0.00    +0.116 C 
ATOM     18  C   UNL     1       2.269   0.981   3.463  0.00  0.00    +0.130 C 
ATOM     19  C   UNL     1       2.129   2.514   3.335  0.00  0.00    +0.039 C 
ATOM     20  O   UNL     1       3.622   0.546   3.441  0.00  0.00    -0.371 OA
ATOM     21  C   UNL     1       4.274   0.607   2.167  0.00  0.00    +0.130 C 
ATOM     22  C   UNL     1       5.635  -0.100   2.175  0.00  0.00    +0.039 C 
ATOM     23  C   UNL     1       3.381   0.279   0.930  0.00  0.00    +0.116 C 
ENDBRANCH  15  16
BRANCH  15  25
ATOM     24  C   UNL     1      -1.270  -0.618  -1.026  0.00  0.00    +0.009 C 
ATOM     25  C   UNL     1      -0.465   0.077   0.095  0.00  0.00    +0.009 C 
ATOM     26  C   UNL     1      -0.975   1.520   0.303  0.00  0.00    +0.009 C 
ENDBRANCH  15  25
ENDBRANCH   1  15
TORSDOF 4
