REMARK  Name = Z1001209862-2
REMARK  8 active torsions:
REMARK  status: ('A' for Active; 'I' for Inactive)
REMARK    1  A    between atoms: C_1  and  C_2
REMARK    2  A    between atoms: C_2  and  C_3
REMARK    3  A    between atoms: C_2  and  C_4
REMARK    4  A    between atoms: C_4  and  N_5
REMARK    5  A    between atoms: C_4  and  C_13
REMARK    6  A    between atoms: C_7  and  C_8
REMARK    7  A    between atoms: C_10  and  C_11
REMARK    8  A    between atoms: N_18  and  C_21
REMARK                            x       y       z     vdW  Elec       q    Type
REMARK                         _______ _______ _______ _____ _____    ______ ____
ROOT
ATOM      1  C   UNL     1       1.839   0.833  -1.230  0.00  0.00    +0.233 C 
ATOM      2  O   UNL     1       1.983   0.219  -2.293  0.00  0.00    -0.274 OA
ATOM      3  N   UNL     1       2.191   2.144  -1.097  0.00  0.00    -0.297 N 
ATOM      4  C   UNL     1       2.902   2.840  -2.174  0.00  0.00    +0.126 C 
ATOM      5  C   UNL     1       4.305   3.230  -1.657  0.00  0.00    +0.125 C 
ATOM      6  N   UNL     1       4.359   3.921  -0.348  0.00  0.00    -0.311 N 
ATOM      7  C   UNL     1       3.421   3.350   0.641  0.00  0.00    +0.125 C 
ATOM      8  C   UNL     1       2.026   2.961   0.108  0.00  0.00    +0.126 C 
ENDROOT
BRANCH   6   9
ATOM      9  C   UNL     1       5.506   4.622   0.049  0.00  0.00    +0.144 A 
ATOM     10  C   UNL     1       5.761   4.974   1.386  0.00  0.00    +0.047 A 
ATOM     11  C   UNL     1       6.897   5.725   1.684  0.00  0.00    +0.025 A 
ATOM     12  C   UNL     1       7.724   6.101   0.631  0.00  0.00    +0.135 A 
ATOM     13  N   UNL     1       7.456   5.761  -0.655  0.00  0.00    -0.156 NA
ATOM     14  N   UNL     1       6.358   5.040  -0.935  0.00  0.00    -0.134 NA
ENDBRANCH   6   9
BRANCH   1  15
ATOM     15  C   UNL     1       1.258   0.030  -0.011  0.00  0.00    +0.146 C 
BRANCH  15  16
ATOM     16  N   UNL     1       1.990  -1.278   0.115  0.00  0.00    -0.286 NA
ATOM     17  C   UNL     1       1.366  -2.213   1.072  0.00  0.00    +0.116 C 
ATOM     18  C   UNL     1       2.187  -3.486   1.432  0.00  0.00    +0.130 C 
ATOM     19  C   UNL     1       1.731  -4.192   2.714  0.00  0.00    +0.039 C 
ATOM     20  O   UNL     1       3.606  -3.336   1.373  0.00  0.00    -0.371 OA
ATOM     21  C   UNL     1       4.073  -2.543   0.292  0.00  0.00    +0.130 C 
ATOM     22  C   UNL     1       5.601  -2.472   0.402  0.00  0.00    +0.039 C 
ATOM     23  C   UNL     1       3.429  -1.149   0.398  0.00  0.00    +0.116 C 
ENDBRANCH  15  16
BRANCH  15  25
ATOM     24  C   UNL     1      -0.784  -0.874  -1.424  0.00  0.00    +0.009 C 
ATOM     25  C   UNL     1      -0.305  -0.068  -0.195  0.00  0.00    +0.009 C 
ATOM     26  C   UNL     1      -1.033   1.292  -0.138  0.00  0.00    +0.009 C 
ENDBRANCH  15  25
ENDBRANCH   1  15
TORSDOF 4
