REMARK  Name = Z1001056548-1
REMARK  6 active torsions:
REMARK  status: ('A' for Active; 'I' for Inactive)
REMARK    1  A    between atoms: C_2  and  C_3
REMARK    2  A    between atoms: C_3  and  C_4
REMARK    3  A    between atoms: N_9  and  C_10
REMARK    4  A    between atoms: C_10  and  C_11
REMARK    5  A    between atoms: C_11  and  N_12
REMARK    6  A    between atoms: C_13  and  C_15
REMARK                            x       y       z     vdW  Elec       q    Type
REMARK                         _______ _______ _______ _____ _____    ______ ____
ROOT
ATOM      1  N   UNL     1       1.462   1.239  -2.045  0.00  0.00    -0.310 N 
ATOM      2  C   UNL     1       0.350   1.393  -2.790  0.00  0.00    +0.246 C 
ATOM      3  O   UNL     1      -0.308   0.454  -3.238  0.00  0.00    -0.270 OA
ATOM      4  H   UNL     1       1.977   2.061  -1.766  0.00  0.00    +0.149 HD
ENDROOT
BRANCH   2   5
ATOM      5  C   UNL     1      -0.081   2.757  -2.981  0.00  0.00    +0.063 A 
ATOM      6  C   UNL     1       0.669   3.900  -2.700  0.00  0.00    +0.098 A 
ATOM      7  N   UNL     1      -0.036   5.038  -3.000  0.00  0.00    -0.345 N 
ATOM      8  C   UNL     1      -1.263   4.684  -3.508  0.00  0.00    +0.139 A 
ATOM      9  N   UNL     1      -2.224   5.521  -3.912  0.00  0.00    -0.237 NA
ATOM     10  C   UNL     1      -3.347   4.914  -4.380  0.00  0.00    +0.113 A 
ATOM     11  C   UNL     1      -3.527   3.533  -4.457  0.00  0.00    +0.020 A 
ATOM     12  C   UNL     1      -2.506   2.683  -4.027  0.00  0.00    +0.014 A 
ATOM     13  C   UNL     1      -1.321   3.260  -3.528  0.00  0.00    +0.031 A 
ATOM     14  H   UNL     1       0.332   5.967  -2.856  0.00  0.00    +0.167 HD
ENDBRANCH   2   5
BRANCH   1  15
ATOM     15  C   UNL     1       2.002  -0.052  -1.615  0.00  0.00    +0.123 C 
BRANCH  15  16
ATOM     16  C   UNL     1       1.547  -0.512  -0.206  0.00  0.00    +0.123 C 
BRANCH  16  19
ATOM     17  O   UNL     1       0.178   1.667   1.046  0.00  0.00    -0.276 OA
ATOM     18  C   UNL     1      -0.460   0.698   0.634  0.00  0.00    +0.213 C 
ATOM     19  N   UNL     1       0.113  -0.375   0.059  0.00  0.00    -0.314 N 
ATOM     20  H   UNL     1      -0.475  -1.141  -0.235  0.00  0.00    +0.149 HD
BRANCH  18  21
ATOM     21  C   UNL     1      -1.992   0.686   0.744  0.00  0.00    +0.099 C 
BRANCH  21  22
ATOM     22  C   UNL     1      -2.681   1.659  -0.248  0.00  0.00    -0.002 C 
ATOM     23  C   UNL     1      -2.483   3.160   0.079  0.00  0.00    +0.004 C 
ATOM     24  C   UNL     1      -3.873   3.811   0.071  0.00  0.00    +0.000 C 
ATOM     25  C   UNL     1      -4.767   2.834  -0.688  0.00  0.00    +0.000 C 
ATOM     26  C   UNL     1      -4.206   1.462  -0.320  0.00  0.00    +0.004 C 
ENDBRANCH  21  22
ENDBRANCH  18  21
ENDBRANCH  16  19
ENDBRANCH  15  16
ENDBRANCH   1  15
TORSDOF 6
