REMARK  Name = Z1001771158-1
REMARK  6 active torsions:
REMARK  status: ('A' for Active; 'I' for Inactive)
REMARK    1  A    between atoms: C_1  and  O_2
REMARK    2  A    between atoms: O_2  and  C_3
REMARK    3  A    between atoms: C_3  and  C_4
REMARK    4  A    between atoms: C_4  and  N_5
REMARK    5  A    between atoms: C_10  and  C_12
REMARK    6  A    between atoms: N_16  and  C_17
REMARK                            x       y       z     vdW  Elec       q    Type
REMARK                         _______ _______ _______ _____ _____    ______ ____
ROOT
ATOM      1  N   UNL     1       1.462  -0.118   0.198  0.00  0.00    -0.267 N 
ATOM      2  C   UNL     1       2.283  -0.430   1.249  0.00  0.00    +0.110 A 
ATOM      3  C   UNL     1       3.556  -0.462   0.715  0.00  0.00    +0.065 A 
ATOM      4  C   UNL     1       3.413  -0.156  -0.646  0.00  0.00    +0.147 A 
ATOM      5  N   UNL     1       4.481  -0.095  -1.532  0.00  0.00    -0.265 N 
ATOM      6  C   UNL     1       4.450   0.259  -2.841  0.00  0.00    +0.246 C 
ATOM      7  O   UNL     1       3.416   0.595  -3.427  0.00  0.00    -0.270 OA
ATOM      8  N   UNL     1       2.141   0.051  -0.947  0.00  0.00    -0.156 NA
ATOM      9  H   UNL     1       5.380  -0.337  -1.142  0.00  0.00    +0.157 HD
ENDROOT
BRANCH   6  10
ATOM     10  C   UNL     1       5.742   0.210  -3.523  0.00  0.00    +0.020 C 
ATOM     11  C   UNL     1       5.832   0.510  -4.847  0.00  0.00    +0.011 C 
ATOM     12  C   UNL     1       7.099   0.461  -5.560  0.00  0.00    +0.025 C 
ATOM     13  C   UNL     1       8.239   0.112  -4.928  0.00  0.00    +0.057 C 
ATOM     14  N   UNL     1       9.515  -0.019  -5.321  0.00  0.00    -0.255 N 
ATOM     15  C   UNL     1       9.988   0.211  -6.685  0.00  0.00    +0.140 C 
ATOM     16  C   UNL     1      10.285  -0.394  -4.279  0.00  0.00    +0.330 C 
ATOM     17  O   UNL     1      11.499  -0.595  -4.307  0.00  0.00    -0.250 OA
ATOM     18  N   UNL     1       9.475  -0.515  -3.168  0.00  0.00    -0.165 NA
ATOM     19  C   UNL     1       8.309  -0.223  -3.557  0.00  0.00    +0.061 C 
ATOM     20  C   UNL     1       7.015  -0.198  -2.721  0.00  0.00    +0.095 C 
ENDBRANCH   6  10
BRANCH   1  21
ATOM     21  C   UNL     1       0.013   0.046   0.216  0.00  0.00    +0.171 C 
BRANCH  21  22
ATOM     22  C   UNL     1      -0.396   1.490  -0.123  0.00  0.00    +0.182 C 
BRANCH  22  24
ATOM     23  C   UNL     1      -2.307   2.887  -0.321  0.00  0.00    +0.194 C 
ATOM     24  O   UNL     1      -1.810   1.591  -0.023  0.00  0.00    -0.381 OA
ENDBRANCH  22  24
ENDBRANCH  21  22
ENDBRANCH   1  21
TORSDOF 4
