REMARK  Name = Z1001262418-1
REMARK  5 active torsions:
REMARK  status: ('A' for Active; 'I' for Inactive)
REMARK    1  A    between atoms: C_1  and  C_2
REMARK    2  A    between atoms: C_8  and  N_9
REMARK    3  A    between atoms: C_10  and  C_12
REMARK    4  A    between atoms: C_15  and  N_16
REMARK    5  A    between atoms: C_17  and  C_19
REMARK                            x       y       z     vdW  Elec       q    Type
REMARK                         _______ _______ _______ _____ _____    ______ ____
ROOT
ATOM      1  N   UNL     1      -0.640  -1.200  -0.111  0.00  0.00    -0.280 N 
ATOM      2  C   UNL     1      -0.049   0.017  -0.141  0.00  0.00    +0.248 C 
ATOM      3  O   UNL     1      -0.675   1.077  -0.218  0.00  0.00    -0.270 OA
ATOM      4  H   UNL     1      -0.030  -2.004  -0.131  0.00  0.00    +0.155 HD
ENDROOT
BRANCH   1  12
ATOM      5  C   UNL     1      -5.978   0.630   1.537  0.00  0.00    +0.070 C 
ATOM      6  C   UNL     1      -5.619  -0.642   0.805  0.00  0.00    +0.090 A 
ATOM      7  N   UNL     1      -6.549  -1.511   0.457  0.00  0.00    -0.080 NA
ATOM      8  O   UNL     1      -5.925  -2.583  -0.200  0.00  0.00    -0.334 OA
ATOM      9  C   UNL     1      -4.590  -2.319  -0.228  0.00  0.00    +0.259 A 
ATOM     10  N   UNL     1      -3.700  -3.143  -0.777  0.00  0.00    -0.217 NA
ATOM     11  C   UNL     1      -2.413  -2.704  -0.704  0.00  0.00    +0.138 A 
ATOM     12  C   UNL     1      -2.014  -1.492  -0.121  0.00  0.00    +0.053 A 
ATOM     13  C   UNL     1      -2.992  -0.661   0.460  0.00  0.00    +0.040 A 
ATOM     14  C   UNL     1      -4.327  -1.092   0.397  0.00  0.00    +0.065 A 
ENDBRANCH   1  12
BRANCH   2  15
ATOM     15  C   UNL     1       1.468   0.028  -0.085  0.00  0.00    +0.037 A 
ATOM     16  C   UNL     1       2.217  -1.159  -0.050  0.00  0.00    +0.015 A 
ATOM     17  C   UNL     1       3.607  -1.121   0.007  0.00  0.00    +0.024 A 
ATOM     18  C   UNL     1       4.282   0.100   0.032  0.00  0.00    +0.033 A 
ATOM     19  C   UNL     1       3.544   1.292  -0.006  0.00  0.00    +0.024 A 
ATOM     20  C   UNL     1       2.153   1.251  -0.064  0.00  0.00    +0.015 A 
BRANCH  18  21
ATOM     21  N   UNL     1       5.687   0.019   0.095  0.00  0.00    -0.285 N 
ATOM     22  C   UNL     1       6.614   1.000   0.141  0.00  0.00    +0.220 C 
ATOM     23  O   UNL     1       6.369   2.207   0.132  0.00  0.00    -0.275 OA
ATOM     24  H   UNL     1       6.044  -0.925   0.111  0.00  0.00    +0.155 HD
BRANCH  22  25
ATOM     25  C   UNL     1       8.070   0.497   0.211  0.00  0.00    +0.075 C 
ATOM     26  C   UNL     1       9.032   1.339   1.025  0.00  0.00    +0.013 C 
ATOM     27  C   UNL     1       9.110   1.350  -0.487  0.00  0.00    +0.013 C 
ENDBRANCH  22  25
ENDBRANCH  18  21
ENDBRANCH   2  15
TORSDOF 4
